Circuit: * C:\Users\simon\Desktop\UniTN\3° anno\1° semestre\Elettronica Analogica\Progetto\LT Spezia\RC Ladder filter.asc


Date: Fri Feb 18 11:40:59 2022
Total elapsed time: 0.020 seconds.

tnom = 27
temp = 27
method = trap
totiter = 0
traniter = 0
tranpoints = 0
accept = 0
rejected = 0
matrix size = 16
fillins = 0
solver = Normal

