Circuit: * C:\Users\simon\Desktop\UniTN\3° anno\1° semestre\Elettronica Analogica\time-domain-gaussian-shaping-filters\LT Spezia\Real_Passive_8_LP_Bessel_1_HP\Real_Passive_8_LP_Bessel_1_HP.asc

C9: Increased Cpar to 2.2e-018
Per .tran options, skipping operating point for transient analysis.
Changing Tseed to 1e-011
Changing Tseed to 1e-013
Changing Tseed to 1e-010
Changing Tseed to 1e-014
Changing Tseed to 1e-009
Changing Tseed to 1e-015
Changing Tseed to 1e-008
Changing Tseed to 1e-016
Changing Tseed to 1e-007
Changing Tseed to 1e-017
Changing Tseed to 1e-006
Changing Tseed to 1e-018
Heightened Def Con from 0 Changing Tseed to 1e-010
Changing Tseed to 1e-012
Changing Tseed to 1e-009
Changing Tseed to 1e-013
Changing Tseed to 1e-008
Changing Tseed to 1e-014
Changing Tseed to 1e-007
Changing Tseed to 1e-015
Changing Tseed to 1e-006
Changing Tseed to 1e-016
Changing Tseed to 1e-005
Changing Tseed to 1e-017
+Changing Tseed to 1e-010
Changing Tseed to 1e-012
Changing Tseed to 1e-009
Changing Tseed to 1e-013
Changing Tseed to 1e-008
Changing Tseed to 1e-014
Changing Tseed to 1e-007
Changing Tseed to 1e-015
Changing Tseed to 1e-006
Changing Tseed to 1e-016
Changing Tseed to 1e-005
Changing Tseed to 1e-017
+Changing Tseed to 1e-010
Changing Tseed to 1e-012
Changing Tseed to 1e-009
Changing Tseed to 1e-013
Changing Tseed to 1e-008
Changing Tseed to 1e-014
Changing Tseed to 1e-007
Changing Tseed to 1e-015
Changing Tseed to 1e-006
Changing Tseed to 1e-016
Changing Tseed to 1e-005
Changing Tseed to 1e-017
+Changing Tseed to 1e-010
Changing Tseed to 1e-012
Changing Tseed to 1e-009
Changing Tseed to 1e-013
Changing Tseed to 1e-008
Changing Tseed to 1e-014
Changing Tseed to 1e-007
Changing Tseed to 1e-015
Changing Tseed to 1e-006
Changing Tseed to 1e-016
Changing Tseed to 1e-005
Changing Tseed to 1e-017
+Changing Tseed to 1e-010
Changing Tseed to 1e-012
Changing Tseed to 1e-009
Changing Tseed to 1e-013
Changing Tseed to 1e-008
Changing Tseed to 1e-014
Changing Tseed to 1e-007
Changing Tseed to 1e-015
Changing Tseed to 1e-006
Changing Tseed to 1e-016
Changing Tseed to 1e-005
Changing Tseed to 1e-017
+Changing Tseed to 1e-010
Changing Tseed to 1e-012
Changing Tseed to 1e-009
Changing Tseed to 1e-013
Changing Tseed to 1e-008
Changing Tseed to 1e-014
Changing Tseed to 1e-007
Changing Tseed to 1e-015
Changing Tseed to 1e-006
Changing Tseed to 1e-016
Changing Tseed to 1e-005
Changing Tseed to 1e-017
+Changing Tseed to 1e-010
Changing Tseed to 1e-012
Changing Tseed to 1e-009
Changing Tseed to 1e-013
Changing Tseed to 1e-008
Changing Tseed to 1e-014
Changing Tseed to 1e-007
Changing Tseed to 1e-015
Changing Tseed to 1e-006
Changing Tseed to 1e-016
Changing Tseed to 1e-005
Changing Tseed to 1e-017
+Changing Tseed to 1e-010
Changing Tseed to 1e-012
Changing Tseed to 1e-009
Changing Tseed to 1e-013
Changing Tseed to 1e-008
Changing Tseed to 1e-014
Changing Tseed to 1e-007
Changing Tseed to 1e-015
Changing Tseed to 1e-006
Changing Tseed to 1e-016
Changing Tseed to 1e-005
Changing Tseed to 1e-017
+Changing Tseed to 1e-010
Changing Tseed to 1e-012
Changing Tseed to 1e-009
Changing Tseed to 1e-013
Changing Tseed to 1e-008
Changing Tseed to 1e-014
Changing Tseed to 1e-007
Changing Tseed to 1e-015
Changing Tseed to 1e-006
Changing Tseed to 1e-016
Changing Tseed to 1e-005
Changing Tseed to 1e-017
+Changing Tseed to 1e-010
Changing Tseed to 1e-012
Changing Tseed to 1e-009
Changing Tseed to 1e-013
Changing Tseed to 1e-008
Changing Tseed to 1e-014
Changing Tseed to 1e-007
Changing Tseed to 1e-015
Changing Tseed to 1e-006
Changing Tseed to 1e-016
Changing Tseed to 1e-005
Changing Tseed to 1e-017
+Changing Tseed to 1e-010
Changing Tseed to 1e-012
Changing Tseed to 1e-009
Changing Tseed to 1e-013
Changing Tseed to 1e-008
Changing Tseed to 1e-014
Changing Tseed to 1e-007
Changing Tseed to 1e-015
Changing Tseed to 1e-006
Changing Tseed to 1e-016
Changing Tseed to 1e-005
Changing Tseed to 1e-017
+Changing Tseed to 1e-010
Changing Tseed to 1e-012
Changing Tseed to 1e-009
Changing Tseed to 1e-013
Changing Tseed to 1e-008
Changing Tseed to 1e-014
Changing Tseed to 1e-007
Changing Tseed to 1e-015
Changing Tseed to 1e-006
Changing Tseed to 1e-016
Changing Tseed to 1e-005
Changing Tseed to 1e-017
+Changing Tseed to 1e-010
Changing Tseed to 1e-012
Changing Tseed to 1e-009
Changing Tseed to 1e-013
Changing Tseed to 1e-008
Changing Tseed to 1e-014
Changing Tseed to 1e-007
Changing Tseed to 1e-015
Changing Tseed to 1e-006
Changing Tseed to 1e-016
Changing Tseed to 1e-005
Changing Tseed to 1e-017
+Changing Tseed to 1e-010
Changing Tseed to 1e-012
Changing Tseed to 1e-009
Changing Tseed to 1e-013
Changing Tseed to 1e-008
Changing Tseed to 1e-014
Changing Tseed to 1e-007
Changing Tseed to 1e-015
Changing Tseed to 1e-006
Changing Tseed to 1e-016
Changing Tseed to 1e-005
Changing Tseed to 1e-017
+Changing Tseed to 1e-010
Changing Tseed to 1e-012
Changing Tseed to 1e-009
Changing Tseed to 1e-013
Changing Tseed to 1e-008
Changing Tseed to 1e-014
Changing Tseed to 1e-007
Changing Tseed to 1e-015
Changing Tseed to 1e-006
Changing Tseed to 1e-016
Changing Tseed to 1e-005
Changing Tseed to 1e-017
+Changing Tseed to 1e-010
Changing Tseed to 1e-012
Changing Tseed to 1e-009
Changing Tseed to 1e-013
Changing Tseed to 1e-008
Changing Tseed to 1e-014
Changing Tseed to 1e-007
Changing Tseed to 1e-015
Changing Tseed to 1e-006
Changing Tseed to 1e-016
Changing Tseed to 1e-005
Changing Tseed to 1e-017
+Changing Tseed to 1e-010
Changing Tseed to 1e-012
Changing Tseed to 1e-009
Changing Tseed to 1e-013
Changing Tseed to 1e-008
Changing Tseed to 1e-014
Changing Tseed to 1e-007
Changing Tseed to 1e-015
Changing Tseed to 1e-006
Changing Tseed to 1e-016
Changing Tseed to 1e-005
Changing Tseed to 1e-017
+Changing Tseed to 1e-010
Changing Tseed to 1e-012
Changing Tseed to 1e-009
Changing Tseed to 1e-013
Changing Tseed to 1e-008
Changing Tseed to 1e-014
Changing Tseed to 1e-007
Changing Tseed to 1e-015
Changing Tseed to 1e-006
Changing Tseed to 1e-016
Changing Tseed to 1e-005
Changing Tseed to 1e-017
+Changing Tseed to 1e-010
Changing Tseed to 1e-012
Changing Tseed to 1e-009
Changing Tseed to 1e-013
Changing Tseed to 1e-008
Changing Tseed to 1e-014
Changing Tseed to 1e-007
Changing Tseed to 1e-015
Changing Tseed to 1e-006
Changing Tseed to 1e-016
Changing Tseed to 1e-005
Changing Tseed to 1e-017
+Changing Tseed to 1e-010
Changing Tseed to 1e-012
Changing Tseed to 1e-009
Changing Tseed to 1e-013
Changing Tseed to 1e-008
Changing Tseed to 1e-014
Changing Tseed to 1e-007
Changing Tseed to 1e-015
Changing Tseed to 1e-006
Changing Tseed to 1e-016
Changing Tseed to 1e-005
Changing Tseed to 1e-017
+Changing Tseed to 1e-010
Changing Tseed to 1e-012
Changing Tseed to 1e-009
Changing Tseed to 1e-013
Changing Tseed to 1e-008
Changing Tseed to 1e-014
Changing Tseed to 1e-007
Changing Tseed to 1e-015
Changing Tseed to 1e-006
Changing Tseed to 1e-016
Changing Tseed to 1e-005
Changing Tseed to 1e-017
+Changing Tseed to 1e-010
Changing Tseed to 1e-012
Changing Tseed to 1e-009
Changing Tseed to 1e-013
Changing Tseed to 1e-008
Changing Tseed to 1e-014
Changing Tseed to 1e-007
Changing Tseed to 1e-015
Changing Tseed to 1e-006
Changing Tseed to 1e-016
Changing Tseed to 1e-005
Changing Tseed to 1e-017
+Changing Tseed to 1e-010
Changing Tseed to 1e-012
Changing Tseed to 1e-009
Changing Tseed to 1e-013
to 1.125e-013
Heightened Def Con from 1.125e-013 ++++++++++++++++++++to 1.40722e-010
Heightened Def Con from 1.40722e-010 +++++++++++++++++to 1.1e-009
Heightened Def Con from 0.001 ++++++to 0.001
Heightened Def Con from 0.001 to 0.001
Heightened Def Con from 0.001 ++++++++to 0.001
Heightened Def Con from 0.001 ++++to 0.001
Heightened Def Con from 0.001 +++++to 0.001
Heightened Def Con from 0.001 to 0.001
Heightened Def Con from 0.001 ++++++to 0.001
Heightened Def Con from 0.001 to 0.001
Heightened Def Con from 0.001 +to 0.001
Heightened Def Con from 0.001 +++++to 0.001
Heightened Def Con from 0.001 ++to 0.001
Heightened Def Con from 0.001 to 0.001
Heightened Def Con from 0.005 ++++++to 0.005
Heightened Def Con from 0.005 to 0.005
Heightened Def Con from 0.005 to 0.005
Heightened Def Con from 0.005 +++to 0.005
Heightened Def Con from 0.005 ++++to 0.005
Heightened Def Con from 0.005 to 0.005
Heightened Def Con from 0.005 to 0.005
Heightened Def Con from 0.005 ++to 0.005
Heightened Def Con from 0.005 to 0.005

Date: Mon Feb 21 17:11:56 2022
Total elapsed time: 1.740 seconds.

tnom = 27
temp = 27
method = modified trap
totiter = 129165
traniter = 129165
tranpoints = 54528
accept = 52360
rejected = 2023
matrix size = 111
fillins = 113
solver = Normal
Thread vector: 7.9/7.1[2] 2.7/3.3[1] 3.3/2.6[2] 0.3/1.5[1]  2592/500
Matrix Compiler1: 12.36 KB object code size  2.2/1.7/[0.4]
Matrix Compiler2: 10.73 KB object code size  0.8/1.3/[0.3]

