Circuit: * C:\Users\simon\Desktop\UniTN\3° anno\1° semestre\Elettronica Analogica\time-domain-gaussian-shaping-filters\LT Spezia\LM358_BreadBoard_Implementation\LM358_BreadBoard_Implementation.asc

C10: Increased Cpar to 1e-016
C9: Increased Cpar to 1e-015
C8: Increased Cpar to 2.2e-016
C7: Increased Cpar to 2.2e-016
C6: Increased Cpar to 1e-015
C4: Increased Cpar to 1e-015
C3: Increased Cpar to 1e-015
C2: Increased Cpar to 6.8e-016
C1: Increased Cpar to 1e-015
Per .tran options, skipping operating point for transient analysis.
Changing Tseed to 1e-011
Changing Tseed to 1e-013
Changing Tseed to 1e-010
Changing Tseed to 1e-014
Changing Tseed to 1e-009
Changing Tseed to 1e-015
Changing Tseed to 1e-008
Changing Tseed to 1e-016
Changing Tseed to 1e-007
Changing Tseed to 1e-017
Changing Tseed to 1e-006
Changing Tseed to 1e-018
Heightened Def Con from 0 Changing Tseed to 1e-010
Changing Tseed to 1e-012
Changing Tseed to 1e-009
Changing Tseed to 1e-013
Changing Tseed to 1e-008
Changing Tseed to 1e-014
Changing Tseed to 1e-007
Changing Tseed to 1e-015
Changing Tseed to 1e-006
Changing Tseed to 1e-016
Changing Tseed to 1e-005
Changing Tseed to 1e-017
+Changing Tseed to 1e-010
Changing Tseed to 1e-012
Changing Tseed to 1e-009
Changing Tseed to 1e-013
Changing Tseed to 1e-008
Changing Tseed to 1e-014
Changing Tseed to 1e-007
Changing Tseed to 1e-015
Changing Tseed to 1e-006
Changing Tseed to 1e-016
Changing Tseed to 1e-005
Changing Tseed to 1e-017
+Changing Tseed to 1e-010
Changing Tseed to 1e-012
Changing Tseed to 1e-009
Changing Tseed to 1e-013
Changing Tseed to 1e-008
Changing Tseed to 1e-014
Changing Tseed to 1e-007
Changing Tseed to 1e-015
Changing Tseed to 1e-006
Changing Tseed to 1e-016
Changing Tseed to 1e-005
Changing Tseed to 1e-017
+Changing Tseed to 1e-010
Changing Tseed to 1e-012
Changing Tseed to 1e-009
Changing Tseed to 1e-013
Changing Tseed to 1e-008
Changing Tseed to 1e-014
Changing Tseed to 1e-007
Changing Tseed to 1e-015
Changing Tseed to 1e-006
Changing Tseed to 1e-016
Changing Tseed to 1e-005
Changing Tseed to 1e-017
+Changing Tseed to 1e-010
Changing Tseed to 1e-012
Changing Tseed to 1e-009
Changing Tseed to 1e-013
Changing Tseed to 1e-008
Changing Tseed to 1e-014
Changing Tseed to 1e-007
Changing Tseed to 1e-015
Changing Tseed to 1e-006
Changing Tseed to 1e-016
Changing Tseed to 1e-005
Changing Tseed to 1e-017
+Changing Tseed to 1e-010
Changing Tseed to 1e-012
Changing Tseed to 1e-009
Changing Tseed to 1e-013
Changing Tseed to 1e-008
Changing Tseed to 1e-014
Changing Tseed to 1e-007
Changing Tseed to 1e-015
Changing Tseed to 1e-006
Changing Tseed to 1e-016
Changing Tseed to 1e-005
Changing Tseed to 1e-017
+Changing Tseed to 1e-010
Changing Tseed to 1e-012
Changing Tseed to 1e-009
Changing Tseed to 1e-013
Changing Tseed to 1e-008
Changing Tseed to 1e-014
Changing Tseed to 1e-007
Changing Tseed to 1e-015
Changing Tseed to 1e-006
Changing Tseed to 1e-016
Changing Tseed to 1e-005
Changing Tseed to 1e-017
+Changing Tseed to 1e-010
Changing Tseed to 1e-012
Changing Tseed to 1e-009
Changing Tseed to 1e-013
Changing Tseed to 1e-008
Changing Tseed to 1e-014
Changing Tseed to 1e-007
Changing Tseed to 1e-015
Changing Tseed to 1e-006
Changing Tseed to 1e-016
Changing Tseed to 1e-005
Changing Tseed to 1e-017
+Changing Tseed to 1e-010
Changing Tseed to 1e-012
Changing Tseed to 1e-009
Changing Tseed to 1e-013
Changing Tseed to 1e-008
Changing Tseed to 1e-014
Changing Tseed to 1e-007
Changing Tseed to 1e-015
Changing Tseed to 1e-006
Changing Tseed to 1e-016
Changing Tseed to 1e-005
Changing Tseed to 1e-017
+Changing Tseed to 1e-010
Changing Tseed to 1e-012
Changing Tseed to 1e-009
Changing Tseed to 1e-013
Changing Tseed to 1e-008
Changing Tseed to 1e-014
Changing Tseed to 1e-007
Changing Tseed to 1e-015
Changing Tseed to 1e-006
Changing Tseed to 1e-016
Changing Tseed to 1e-005
Changing Tseed to 1e-017
+Changing Tseed to 1e-010
Changing Tseed to 1e-012
Changing Tseed to 1e-009
Changing Tseed to 1e-013
Changing Tseed to 1e-008
Changing Tseed to 1e-014
Changing Tseed to 1e-007
Changing Tseed to 1e-015
Changing Tseed to 1e-006
Changing Tseed to 1e-016
Changing Tseed to 1e-005
Changing Tseed to 1e-017
+Changing Tseed to 1e-010
Changing Tseed to 1e-012
Changing Tseed to 1e-009
Changing Tseed to 1e-013
Changing Tseed to 1e-008
Changing Tseed to 1e-014
Changing Tseed to 1e-007
Changing Tseed to 1e-015
Changing Tseed to 1e-006
Changing Tseed to 1e-016
Changing Tseed to 1e-005
Changing Tseed to 1e-017
+Changing Tseed to 1e-010
Changing Tseed to 1e-012
Changing Tseed to 1e-009
Changing Tseed to 1e-013
Changing Tseed to 1e-008
Changing Tseed to 1e-014
Changing Tseed to 1e-007
Changing Tseed to 1e-015
Changing Tseed to 1e-006
Changing Tseed to 1e-016
Changing Tseed to 1e-005
Changing Tseed to 1e-017
+Changing Tseed to 1e-010
Changing Tseed to 1e-012
Changing Tseed to 1e-009
Changing Tseed to 1e-013
Changing Tseed to 1e-008
Changing Tseed to 1e-014
Changing Tseed to 1e-007
Changing Tseed to 1e-015
Changing Tseed to 1e-006
Changing Tseed to 1e-016
Changing Tseed to 1e-005
Changing Tseed to 1e-017
+Changing Tseed to 1e-010
Changing Tseed to 1e-012
Changing Tseed to 1e-009
Changing Tseed to 1e-013
Changing Tseed to 1e-008
Changing Tseed to 1e-014
Changing Tseed to 1e-007
Changing Tseed to 1e-015
Changing Tseed to 1e-006
Changing Tseed to 1e-016
Changing Tseed to 1e-005
Changing Tseed to 1e-017
+Changing Tseed to 1e-010
Changing Tseed to 1e-012
Changing Tseed to 1e-009
Changing Tseed to 1e-013
Changing Tseed to 1e-008
Changing Tseed to 1e-014
Changing Tseed to 1e-007
Changing Tseed to 1e-015
Changing Tseed to 1e-006
Changing Tseed to 1e-016
Changing Tseed to 1e-005
Changing Tseed to 1e-017
+Changing Tseed to 1e-010
Changing Tseed to 1e-012
Changing Tseed to 1e-009
Changing Tseed to 1e-013
Changing Tseed to 1e-008
Changing Tseed to 1e-014
Changing Tseed to 1e-007
Changing Tseed to 1e-015
Changing Tseed to 1e-006
Changing Tseed to 1e-016
Changing Tseed to 1e-005
Changing Tseed to 1e-017
+Changing Tseed to 1e-010
Changing Tseed to 1e-012
Changing Tseed to 1e-009
Changing Tseed to 1e-013
Changing Tseed to 1e-008
Changing Tseed to 1e-014
Changing Tseed to 1e-007
Changing Tseed to 1e-015
Changing Tseed to 1e-006
Changing Tseed to 1e-016
Changing Tseed to 1e-005
Changing Tseed to 1e-017
+Changing Tseed to 1e-010
Changing Tseed to 1e-012
Changing Tseed to 1e-009
to 1e-009

Date: Tue Feb 22 12:55:17 2022
Total elapsed time: 1.170 seconds.

tnom = 27
temp = 27
method = modified trap
totiter = 105903
traniter = 105903
tranpoints = 51516
accept = 51196
rejected = 108
matrix size = 104
fillins = 141
solver = Normal
Thread vector: 5.9/4.3[2] 2.6/2.1[2] 1.5/1.4[1] 0.3/1.6[1]  2592/500
Matrix Compiler1: 12.71 KB object code size  2.1/1.3/[0.5]
Matrix Compiler2: 11.14 KB object code size  0.8/1.2/[0.4]

